2253
Generated in SubPEx.	Res: 0.5	Dim: 15.0 Ang	Volume: 281.625 Ang^3
CA	2.5	1.5	5.5
CA	2.5	1.5	8.0
CA	3.0	1.5	5.5
CA	3.0	1.5	7.5
CA	3.5	1.5	6.5
CA	3.5	1.5	6.0
CA	3.5	1.5	5.5
CA	4.0	1.5	5.5
CA	0.5	2.0	5.5
CA	0.5	2.0	6.5
CA	0.5	2.0	6.0
CA	0.5	2.0	7.0
CA	1.0	2.0	5.5
CA	1.0	2.0	7.0
CA	1.0	2.0	6.5
CA	1.0	2.0	7.5
CA	1.0	2.0	8.0
CA	1.5	2.0	7.0
CA	1.5	2.0	6.5
CA	1.5	2.0	7.5
CA	1.5	2.0	8.0
CA	2.0	2.0	7.5
CA	2.0	2.0	8.0
CA	2.5	2.0	7.5
CA	2.5	2.0	8.0
CA	3.0	2.0	7.0
CA	3.0	2.0	8.0
CA	3.0	2.0	7.5
CA	3.5	2.0	6.5
CA	3.5	2.0	7.0
CA	3.5	2.0	7.5
CA	4.0	2.0	7.0
CA	4.0	2.0	6.0
CA	4.0	2.0	6.5
CA	4.0	2.0	7.5
CA	4.5	2.0	5.5
CA	4.5	2.0	5.0
CA	4.5	2.0	6.5
CA	4.5	2.0	7.5
CA	4.5	2.0	7.0
CA	4.5	2.0	6.0
CA	5.0	2.0	4.5
CA	5.0	2.0	5.0
CA	5.0	2.0	5.5
CA	5.0	2.0	6.0
CA	5.0	2.0	6.5
CA	5.5	2.0	4.0
CA	5.5	2.0	4.5
CA	5.5	2.0	5.0
CA	5.5	2.0	5.5
CA	6.0	2.0	3.0
CA	6.0	2.0	4.5
CA	6.0	2.0	3.5
CA	6.0	2.0	4.0
CA	6.0	2.0	5.0
CA	0.0	2.5	7.0
CA	0.0	2.5	6.5
CA	0.5	2.5	6.5
CA	0.5	2.5	7.0
CA	0.5	2.5	7.5
CA	1.0	2.5	5.5
CA	1.0	2.5	6.0
CA	1.0	2.5	7.0
CA	1.0	2.5	7.5
CA	1.0	2.5	6.5
CA	1.5	2.5	7.0
CA	1.5	2.5	7.5
CA	1.5	2.5	8.0
CA	2.0	2.5	7.5
CA	2.0	2.5	3.5
CA	2.0	2.5	8.0
CA	2.5	2.5	7.5
CA	2.5	2.5	8.0
CA	3.0	2.5	7.5
CA	3.0	2.5	8.0
CA	3.5	2.5	7.5
CA	3.5	2.5	8.0
CA	3.5	2.5	7.0
CA	4.0	2.5	6.5
CA	4.0	2.5	7.0
CA	4.0	2.5	7.5
CA	4.0	2.5	8.0
CA	4.5	2.5	6.0
CA	4.5	2.5	5.5
CA	4.5	2.5	6.5
CA	4.5	2.5	7.0
CA	4.5	2.5	7.5
CA	4.5	2.5	8.0
CA	5.0	2.5	5.0
CA	5.0	2.5	4.5
CA	5.0	2.5	5.5
CA	5.0	2.5	6.0
CA	5.0	2.5	6.5
CA	5.5	2.5	4.0
CA	5.5	2.5	4.5
CA	5.5	2.5	5.0
CA	5.5	2.5	5.5
CA	5.5	2.5	6.0
CA	6.0	2.5	3.5
CA	6.0	2.5	3.0
CA	6.0	2.5	4.0
CA	6.0	2.5	4.5
CA	6.0	2.5	5.0
CA	6.0	2.5	5.5
CA	6.5	2.5	1.5
CA	6.5	2.5	2.0
CA	6.5	2.5	5.0
CA	6.5	2.5	4.5
CA	6.5	2.5	5.5
CA	7.0	2.5	1.5
CA	7.0	2.5	2.0
CA	7.0	2.5	5.0
CA	7.0	2.5	5.5
CA	7.5	2.5	1.5
CA	7.5	2.5	2.0
CA	8.0	2.5	2.0
CA	8.0	2.5	1.5
CA	8.5	2.5	1.5
CA	8.5	2.5	2.0
CA	9.0	2.5	1.5
CA	9.0	2.5	2.0
CA	9.0	2.5	2.5
CA	9.5	2.5	1.5
CA	0.0	3.0	7.5
CA	0.5	3.0	6.5
CA	0.5	3.0	7.5
CA	0.5	3.0	7.0
CA	0.5	3.0	4.0
CA	1.0	3.0	4.0
CA	1.0	3.0	6.5
CA	1.0	3.0	4.5
CA	1.0	3.0	6.0
CA	1.0	3.0	7.0
CA	1.0	3.0	7.5
CA	1.5	3.0	3.5
CA	1.5	3.0	4.5
CA	1.5	3.0	7.0
CA	1.5	3.0	7.5
CA	1.5	3.0	4.0
CA	2.0	3.0	3.5
CA	2.0	3.0	4.0
CA	2.0	3.0	7.5
CA	2.5	3.0	3.0
CA	2.5	3.0	8.0
CA	2.5	3.0	7.5
CA	3.0	3.0	8.0
CA	3.0	3.0	7.5
CA	3.5	3.0	7.5
CA	3.5	3.0	8.0
CA	4.0	3.0	1.5
CA	4.0	3.0	6.5
CA	4.0	3.0	7.0
CA	4.0	3.0	8.0
CA	4.0	3.0	7.5
CA	4.5	3.0	7.5
CA	4.5	3.0	6.0
CA	4.5	3.0	6.5
CA	4.5	3.0	7.0
CA	4.5	3.0	8.0
CA	5.0	3.0	4.5
CA	5.0	3.0	5.5
CA	5.0	3.0	5.0
CA	5.0	3.0	6.0
CA	5.0	3.0	6.5
CA	5.0	3.0	7.0
CA	5.0	3.0	8.0
CA	5.5	3.0	5.0
CA	5.5	3.0	4.5
CA	5.5	3.0	5.5
CA	5.5	3.0	6.0
CA	6.0	3.0	4.5
CA	6.0	3.0	4.0
CA	6.0	3.0	5.0
CA	6.0	3.0	5.5
CA	6.0	3.0	6.0
CA	6.5	3.0	1.0
CA	6.5	3.0	6.0
CA	6.5	3.0	5.0
CA	6.5	3.0	5.5
CA	7.0	3.0	1.0
CA	7.0	3.0	2.0
CA	7.0	3.0	1.5
CA	7.0	3.0	5.0
CA	7.0	3.0	6.0
CA	7.0	3.0	5.5
CA	7.5	3.0	1.5
CA	7.5	3.0	5.5
CA	7.5	3.0	6.0
CA	7.5	3.0	6.5
CA	7.5	3.0	5.0
CA	7.5	3.0	7.0
CA	8.0	3.0	1.5
CA	8.0	3.0	5.0
CA	8.0	3.0	5.5
CA	8.0	3.0	6.0
CA	8.0	3.0	2.0
CA	8.0	3.0	6.5
CA	8.5	3.0	2.0
CA	8.5	3.0	5.5
CA	9.0	3.0	2.0
CA	9.0	3.0	3.0
CA	9.0	3.0	1.5
CA	9.0	3.0	2.5
CA	9.5	3.0	1.5
CA	9.5	3.0	2.0
CA	9.5	3.0	2.5
CA	9.5	3.0	3.0
CA	9.5	3.0	3.5
CA	10.0	3.0	1.0
CA	10.0	3.0	2.5
CA	10.0	3.0	1.5
CA	10.0	3.0	3.0
CA	10.0	3.0	2.0
CA	10.5	3.0	1.0
CA	10.5	3.0	2.0
CA	10.5	3.0	1.5
CA	10.5	3.0	2.5
CA	11.0	3.0	1.0
CA	11.0	3.0	1.5
CA	0.5	3.5	7.5
CA	0.5	3.5	7.0
CA	1.0	3.5	7.0
CA	1.0	3.5	7.5
CA	1.5	3.5	4.5
CA	1.5	3.5	7.0
CA	1.5	3.5	7.5
CA	2.0	3.5	4.0
CA	2.0	3.5	7.5
CA	2.5	3.5	3.5
CA	2.5	3.5	7.5
CA	3.0	3.5	3.0
CA	3.0	3.5	3.5
CA	3.0	3.5	7.5
CA	3.5	3.5	7.0
CA	3.5	3.5	7.5
CA	4.0	3.5	1.5
CA	4.0	3.5	1.0
CA	4.0	3.5	7.5
CA	4.0	3.5	6.5
CA	4.0	3.5	7.0
CA	4.0	3.5	8.0
CA	4.5	3.5	6.0
CA	4.5	3.5	6.5
CA	4.5	3.5	7.0
CA	4.5	3.5	8.0
CA	4.5	3.5	7.5
CA	5.0	3.5	5.5
CA	5.0	3.5	5.0
CA	5.0	3.5	7.0
CA	5.0	3.5	6.5
CA	5.0	3.5	6.0
CA	5.0	3.5	8.0
CA	5.0	3.5	7.5
CA	5.5	3.5	5.0
CA	5.5	3.5	4.5
CA	5.5	3.5	5.5
CA	5.5	3.5	6.5
CA	5.5	3.5	6.0
CA	5.5	3.5	8.0
CA	5.5	3.5	7.0
CA	6.0	3.5	4.5
CA	6.0	3.5	4.0
CA	6.0	3.5	5.0
CA	6.0	3.5	6.0
CA	6.0	3.5	6.5
CA	6.0	3.5	5.5
CA	6.5	3.5	5.0
CA	6.5	3.5	4.5
CA	6.5	3.5	6.0
CA	6.5	3.5	5.5
CA	6.5	3.5	6.5
CA	7.0	3.5	1.5
CA	7.0	3.5	1.0
CA	7.0	3.5	5.5
CA	7.0	3.5	5.0
CA	7.0	3.5	6.5
CA	7.0	3.5	6.0
CA	7.0	3.5	7.0
CA	7.5	3.5	5.0
CA	7.5	3.5	1.5
CA	7.5	3.5	2.0
CA	7.5	3.5	6.0
CA	7.5	3.5	5.5
CA	7.5	3.5	6.5
CA	7.5	3.5	7.0
CA	7.5	3.5	7.5
CA	8.0	3.5	2.0
CA	8.0	3.5	5.0
CA	8.0	3.5	6.5
CA	8.0	3.5	5.5
CA	8.0	3.5	6.0
CA	8.0	3.5	7.0
CA	8.0	3.5	7.5
CA	8.5	3.5	2.0
CA	8.5	3.5	5.5
CA	8.5	3.5	4.5
CA	8.5	3.5	5.0
CA	8.5	3.5	7.5
CA	8.5	3.5	7.0
CA	8.5	3.5	6.5
CA	8.5	3.5	8.0
CA	8.5	3.5	6.0
CA	9.0	3.5	2.5
CA	9.0	3.5	2.0
CA	9.0	3.5	3.5
CA	9.0	3.5	3.0
CA	9.0	3.5	5.0
CA	9.0	3.5	4.0
CA	9.0	3.5	4.5
CA	9.0	3.5	6.0
CA	9.0	3.5	5.5
CA	9.0	3.5	6.5
CA	9.0	3.5	7.0
CA	9.5	3.5	2.0
CA	9.5	3.5	2.5
CA	9.5	3.5	1.5
CA	9.5	3.5	3.0
CA	9.5	3.5	4.0
CA	9.5	3.5	3.5
CA	9.5	3.5	4.5
CA	9.5	3.5	5.0
CA	9.5	3.5	5.5
CA	9.5	3.5	6.0
CA	9.5	3.5	6.5
CA	10.0	3.5	2.0
CA	10.0	3.5	2.5
CA	10.0	3.5	1.0
CA	10.0	3.5	3.5
CA	10.0	3.5	4.0
CA	10.0	3.5	4.5
CA	10.0	3.5	3.0
CA	10.0	3.5	5.0
CA	10.0	3.5	5.5
CA	10.5	3.5	1.0
CA	10.5	3.5	1.5
CA	10.5	3.5	2.0
CA	10.5	3.5	2.5
CA	10.5	3.5	3.0
CA	10.0	3.5	1.5
CA	10.5	3.5	3.5
CA	10.5	3.5	4.0
CA	10.5	3.5	4.5
CA	11.0	3.5	0.5
CA	11.0	3.5	1.5
CA	11.0	3.5	2.5
CA	11.0	3.5	2.0
CA	11.0	3.5	1.0
CA	11.0	3.5	3.5
CA	11.0	3.5	3.0
CA	11.0	3.5	4.0
CA	11.5	3.5	0.5
CA	11.5	3.5	1.0
CA	11.5	3.5	2.0
CA	11.5	3.5	1.5
CA	11.5	3.5	3.0
CA	11.5	3.5	2.5
CA	12.0	3.5	1.0
CA	0.5	4.0	7.5
CA	1.0	4.0	7.5
CA	1.5	4.0	5.0
CA	1.5	4.0	7.5
CA	1.5	4.0	7.0
CA	2.0	4.0	7.0
CA	2.0	4.0	7.5
CA	2.0	4.0	4.5
CA	2.5	4.0	3.5
CA	2.5	4.0	7.5
CA	2.5	4.0	7.0
CA	3.0	4.0	3.0
CA	3.0	4.0	3.5
CA	3.0	4.0	7.0
CA	3.0	4.0	7.5
CA	3.5	4.0	2.5
CA	3.5	4.0	6.5
CA	3.5	4.0	7.0
CA	3.5	4.0	7.5
CA	4.0	4.0	1.0
CA	4.0	4.0	1.5
CA	4.0	4.0	7.5
CA	4.0	4.0	7.0
CA	4.0	4.0	6.5
CA	4.5	4.0	0.5
CA	4.5	4.0	7.0
CA	4.5	4.0	1.0
CA	4.5	4.0	6.0
CA	4.5	4.0	7.5
CA	4.5	4.0	6.5
CA	5.0	4.0	0.5
CA	5.0	4.0	5.5
CA	5.0	4.0	7.0
CA	5.0	4.0	6.5
CA	5.0	4.0	7.5
CA	5.0	4.0	6.0
CA	5.0	4.0	8.0
CA	5.5	4.0	6.0
CA	5.5	4.0	5.0
CA	5.5	4.0	5.5
CA	5.5	4.0	6.5
CA	5.5	4.0	7.0
CA	5.5	4.0	7.5
CA	5.5	4.0	8.0
CA	6.0	4.0	4.0
CA	6.0	4.0	5.0
CA	6.0	4.0	4.5
CA	6.0	4.0	5.5
CA	6.0	4.0	6.0
CA	6.0	4.0	8.0
CA	6.0	4.0	6.5
CA	6.0	4.0	7.0
CA	6.0	4.0	7.5
CA	6.5	4.0	4.0
CA	6.5	4.0	4.5
CA	6.5	4.0	5.0
CA	6.5	4.0	3.5
CA	6.5	4.0	6.5
CA	6.5	4.0	6.0
CA	6.5	4.0	7.5
CA	6.5	4.0	7.0
CA	6.5	4.0	8.0
CA	6.5	4.0	5.5
CA	7.0	4.0	1.0
CA	7.0	4.0	2.5
CA	7.0	4.0	1.5
CA	7.0	4.0	6.0
CA	7.0	4.0	5.0
CA	7.0	4.0	6.5
CA	7.0	4.0	7.0
CA	7.0	4.0	4.5
CA	7.0	4.0	5.5
CA	7.0	4.0	8.0
CA	7.0	4.0	7.5
CA	7.5	4.0	2.0
CA	7.5	4.0	1.5
CA	7.5	4.0	4.5
CA	7.5	4.0	6.0
CA	7.5	4.0	5.0
CA	7.5	4.0	5.5
CA	7.5	4.0	6.5
CA	7.5	4.0	7.5
CA	7.5	4.0	7.0
CA	8.0	4.0	2.5
CA	8.0	4.0	2.0
CA	8.0	4.0	4.5
CA	8.0	4.0	5.0
CA	8.0	4.0	6.0
CA	8.0	4.0	5.5
CA	8.0	4.0	6.5
CA	8.0	4.0	7.0
CA	8.0	4.0	8.0
CA	8.0	4.0	7.5
CA	8.5	4.0	2.0
CA	8.5	4.0	2.5
CA	8.5	4.0	3.0
CA	8.5	4.0	4.0
CA	8.5	4.0	4.5
CA	8.5	4.0	5.0
CA	8.5	4.0	5.5
CA	8.5	4.0	6.0
CA	8.5	4.0	7.0
CA	8.5	4.0	6.5
CA	8.5	4.0	7.5
CA	8.5	4.0	8.0
CA	9.0	4.0	1.5
CA	9.0	4.0	2.0
CA	9.0	4.0	2.5
CA	9.0	4.0	3.0
CA	9.0	4.0	4.0
CA	9.0	4.0	4.5
CA	9.0	4.0	5.5
CA	9.0	4.0	3.5
CA	9.0	4.0	6.0
CA	9.0	4.0	5.0
CA	9.0	4.0	7.5
CA	9.0	4.0	7.0
CA	9.0	4.0	8.0
CA	9.0	4.0	6.5
CA	9.5	4.0	2.0
CA	9.5	4.0	2.5
CA	9.5	4.0	1.5
CA	9.5	4.0	3.0
CA	9.5	4.0	3.5
CA	9.5	4.0	4.0
CA	9.5	4.0	4.5
CA	9.5	4.0	5.5
CA	9.5	4.0	5.0
CA	9.5	4.0	6.5
CA	9.5	4.0	7.0
CA	9.5	4.0	6.0
CA	9.5	4.0	7.5
CA	9.5	4.0	8.0
CA	10.0	4.0	0.5
CA	10.0	4.0	1.5
CA	10.0	4.0	1.0
CA	10.0	4.0	2.0
CA	10.0	4.0	3.0
CA	10.0	4.0	2.5
CA	10.0	4.0	4.0
CA	10.0	4.0	4.5
CA	10.0	4.0	5.5
CA	10.0	4.0	6.0
CA	10.0	4.0	3.5
CA	10.0	4.0	6.5
CA	10.0	4.0	5.0
CA	10.0	4.0	7.5
CA	10.0	4.0	8.0
CA	10.0	4.0	7.0
CA	10.5	4.0	0.5
CA	10.5	4.0	1.0
CA	10.5	4.0	2.5
CA	10.5	4.0	1.5
CA	10.5	4.0	3.0
CA	10.5	4.0	2.0
CA	10.5	4.0	3.5
CA	10.5	4.0	5.0
CA	10.5	4.0	4.0
CA	10.5	4.0	4.5
CA	10.5	4.0	5.5
CA	10.5	4.0	6.5
CA	10.5	4.0	7.0
CA	10.5	4.0	6.0
CA	11.0	4.0	1.0
CA	11.0	4.0	0.5
CA	11.0	4.0	1.5
CA	11.0	4.0	2.5
CA	11.0	4.0	2.0
CA	11.0	4.0	3.0
CA	11.0	4.0	4.5
CA	11.0	4.0	3.5
CA	11.0	4.0	5.5
CA	11.0	4.0	4.0
CA	11.0	4.0	6.0
CA	11.0	4.0	5.0
CA	11.0	4.0	6.5
CA	11.5	4.0	-0.5
CA	11.5	4.0	0.5
CA	11.5	4.0	0.0
CA	11.5	4.0	1.0
CA	11.5	4.0	1.5
CA	11.5	4.0	2.0
CA	11.5	4.0	2.5
CA	11.5	4.0	3.5
CA	11.5	4.0	4.0
CA	11.5	4.0	3.0
CA	11.5	4.0	4.5
CA	12.0	4.0	0.5
CA	12.0	4.0	1.0
CA	12.0	4.0	3.0
CA	12.0	4.0	2.5
CA	12.0	4.0	4.0
CA	12.0	4.0	3.5
CA	12.5	4.0	4.0
CA	12.5	4.0	3.0
CA	12.5	4.0	3.5
CA	1.5	4.5	7.5
CA	2.0	4.5	4.5
CA	2.0	4.5	5.0
CA	2.0	4.5	7.5
CA	2.0	4.5	7.0
CA	2.0	4.5	5.5
CA	2.5	4.5	3.0
CA	2.5	4.5	7.0
CA	2.5	4.5	3.5
CA	2.5	4.5	6.5
CA	2.5	4.5	7.5
CA	3.0	4.5	3.0
CA	3.0	4.5	7.0
CA	3.0	4.5	7.5
CA	3.5	4.5	1.0
CA	3.5	4.5	2.5
CA	3.5	4.5	7.5
CA	3.5	4.5	7.0
CA	4.0	4.5	1.5
CA	4.0	4.5	0.5
CA	4.0	4.5	1.0
CA	4.0	4.5	2.0
CA	4.0	4.5	7.5
CA	4.0	4.5	7.0
CA	4.5	4.5	0.5
CA	4.5	4.5	1.0
CA	4.5	4.5	7.0
CA	4.5	4.5	7.5
CA	5.0	4.5	0.5
CA	5.0	4.5	6.0
CA	5.0	4.5	6.5
CA	5.0	4.5	5.5
CA	5.0	4.5	7.0
CA	5.0	4.5	7.5
CA	5.5	4.5	6.0
CA	5.5	4.5	5.5
CA	5.5	4.5	5.0
CA	5.5	4.5	6.5
CA	5.5	4.5	7.0
CA	5.5	4.5	7.5
CA	6.0	4.5	4.5
CA	6.0	4.5	6.0
CA	6.0	4.5	5.5
CA	6.0	4.5	7.0
CA	6.0	4.5	5.0
CA	6.0	4.5	6.5
CA	6.0	4.5	7.5
CA	6.5	4.5	3.0
CA	6.5	4.5	3.5
CA	6.5	4.5	4.0
CA	6.5	4.5	5.0
CA	6.5	4.5	4.5
CA	6.5	4.5	5.5
CA	6.5	4.5	7.0
CA	6.5	4.5	6.0
CA	6.5	4.5	6.5
CA	6.5	4.5	7.5
CA	6.5	4.5	8.0
CA	7.0	4.5	2.0
CA	7.0	4.5	2.5
CA	7.0	4.5	3.0
CA	7.0	4.5	3.5
CA	7.0	4.5	5.0
CA	7.0	4.5	4.0
CA	7.0	4.5	5.5
CA	7.0	4.5	4.5
CA	7.0	4.5	6.5
CA	7.0	4.5	7.0
CA	7.0	4.5	8.0
CA	7.0	4.5	6.0
CA	7.0	4.5	7.5
CA	7.5	4.5	1.5
CA	7.5	4.5	2.0
CA	7.5	4.5	1.0
CA	7.5	4.5	2.5
CA	7.5	4.5	3.0
CA	7.5	4.5	3.5
CA	7.5	4.5	4.0
CA	7.5	4.5	4.5
CA	7.5	4.5	5.0
CA	7.5	4.5	6.0
CA	7.5	4.5	6.5
CA	7.5	4.5	7.0
CA	7.5	4.5	7.5
CA	7.5	4.5	8.0
CA	7.5	4.5	5.5
CA	8.0	4.5	1.5
CA	8.0	4.5	2.5
CA	8.0	4.5	3.5
CA	8.0	4.5	2.0
CA	8.0	4.5	4.5
CA	8.0	4.5	4.0
CA	8.0	4.5	5.5
CA	8.0	4.5	3.0
CA	8.0	4.5	6.0
CA	8.0	4.5	6.5
CA	8.0	4.5	5.0
CA	8.0	4.5	7.0
CA	8.0	4.5	8.0
CA	8.0	4.5	7.5
CA	8.5	4.5	2.0
CA	8.5	4.5	1.5
CA	8.5	4.5	2.5
CA	8.5	4.5	3.5
CA	8.5	4.5	3.0
CA	8.5	4.5	5.0
CA	8.5	4.5	4.0
CA	8.5	4.5	6.0
CA	8.5	4.5	7.0
CA	8.5	4.5	6.5
CA	8.5	4.5	4.5
CA	8.5	4.5	7.5
CA	8.5	4.5	5.5
CA	8.5	4.5	8.0
CA	9.0	4.5	1.5
CA	9.0	4.5	2.5
CA	9.0	4.5	2.0
CA	9.0	4.5	3.5
CA	9.0	4.5	4.5
CA	9.0	4.5	3.0
CA	9.0	4.5	4.0
CA	9.0	4.5	5.5
CA	9.0	4.5	6.0
CA	9.0	4.5	5.0
CA	9.0	4.5	7.0
CA	9.0	4.5	8.0
CA	9.0	4.5	6.5
CA	9.0	4.5	7.5
CA	9.5	4.5	1.0
CA	9.5	4.5	-0.5
CA	9.5	4.5	2.0
CA	9.5	4.5	1.5
CA	9.5	4.5	2.5
CA	9.5	4.5	3.0
CA	9.5	4.5	4.0
CA	9.5	4.5	4.5
CA	9.5	4.5	3.5
CA	9.5	4.5	5.0
CA	9.5	4.5	6.5
CA	9.5	4.5	7.0
CA	9.5	4.5	7.5
CA	9.5	4.5	8.0
CA	9.5	4.5	5.5
CA	9.5	4.5	6.0
CA	10.0	4.5	0.0
CA	10.0	4.5	-0.5
CA	10.0	4.5	1.0
CA	10.0	4.5	0.5
CA	10.0	4.5	2.5
CA	10.0	4.5	2.0
CA	10.0	4.5	1.5
CA	10.0	4.5	4.0
CA	10.0	4.5	3.0
CA	10.0	4.5	5.0
CA	10.0	4.5	3.5
CA	10.0	4.5	4.5
CA	10.0	4.5	6.0
CA	10.0	4.5	7.0
CA	10.0	4.5	6.5
CA	10.0	4.5	5.5
CA	10.0	4.5	7.5
CA	10.0	4.5	8.0
CA	10.5	4.5	-0.5
CA	10.5	4.5	1.0
CA	10.5	4.5	0.5
CA	10.5	4.5	0.0
CA	10.5	4.5	1.5
CA	10.5	4.5	3.0
CA	10.5	4.5	2.5
CA	10.5	4.5	4.0
CA	10.5	4.5	2.0
CA	10.5	4.5	3.5
CA	10.5	4.5	4.5
CA	10.5	4.5	6.0
CA	10.5	4.5	5.5
CA	10.5	4.5	5.0
CA	10.5	4.5	6.5
CA	10.5	4.5	7.5
CA	10.5	4.5	7.0
CA	10.5	4.5	8.0
CA	11.0	4.5	-0.5
CA	11.0	4.5	1.5
CA	11.0	4.5	0.5
CA	11.0	4.5	1.0
CA	11.0	4.5	2.0
CA	11.0	4.5	0.0
CA	11.0	4.5	2.5
CA	11.0	4.5	3.5
CA	11.0	4.5	3.0
CA	11.0	4.5	4.0
CA	11.0	4.5	5.0
CA	11.0	4.5	4.5
CA	11.0	4.5	5.5
CA	11.0	4.5	6.5
CA	11.0	4.5	6.0
CA	11.0	4.5	8.0
CA	11.0	4.5	7.5
CA	11.5	4.5	-0.5
CA	11.5	4.5	0.0
CA	11.5	4.5	0.5
CA	11.5	4.5	1.0
CA	11.5	4.5	2.0
CA	11.5	4.5	1.5
CA	11.5	4.5	2.5
CA	11.5	4.5	3.5
CA	11.5	4.5	4.5
CA	11.5	4.5	3.0
CA	11.5	4.5	4.0
CA	11.5	4.5	5.0
CA	11.5	4.5	6.0
CA	11.5	4.5	5.5
CA	11.5	4.5	8.0
CA	12.0	4.5	1.5
CA	12.0	4.5	1.0
CA	12.0	4.5	2.5
CA	12.0	4.5	2.0
CA	12.0	4.5	4.0
CA	12.0	4.5	3.5
CA	12.0	4.5	3.0
CA	12.0	4.5	4.5
CA	12.5	4.5	3.5
CA	12.5	4.5	4.0
CA	12.5	4.5	3.0
CA	12.5	4.5	4.5
CA	13.0	4.5	4.0
CA	13.0	4.5	4.5
CA	1.5	5.0	1.5
CA	1.5	5.0	2.0
CA	1.5	5.0	4.5
CA	2.0	5.0	2.5
CA	2.0	5.0	4.5
CA	2.0	5.0	4.0
CA	2.0	5.0	5.0
CA	2.0	5.0	7.5
CA	2.0	5.0	7.0
CA	2.5	5.0	2.5
CA	2.5	5.0	3.5
CA	2.5	5.0	4.0
CA	2.5	5.0	3.0
CA	2.5	5.0	7.0
CA	2.5	5.0	7.5
CA	3.0	5.0	1.0
CA	3.0	5.0	0.5
CA	3.0	5.0	2.5
CA	3.0	5.0	3.5
CA	3.0	5.0	3.0
CA	3.0	5.0	7.0
CA	3.0	5.0	7.5
CA	3.5	5.0	1.0
CA	3.5	5.0	2.5
CA	3.5	5.0	1.5
CA	3.5	5.0	2.0
CA	3.5	5.0	7.5
CA	4.0	5.0	1.0
CA	4.0	5.0	1.5
CA	4.0	5.0	2.0
CA	4.0	5.0	7.5
CA	4.0	5.0	7.0
CA	4.5	5.0	1.0
CA	4.5	5.0	0.5
CA	4.5	5.0	1.5
CA	4.5	5.0	7.0
CA	4.5	5.0	2.0
CA	4.5	5.0	7.5
CA	5.0	5.0	0.5
CA	5.0	5.0	1.0
CA	5.0	5.0	7.5
CA	5.0	5.0	6.5
CA	5.0	5.0	7.0
CA	5.5	5.0	5.0
CA	5.5	5.0	5.5
CA	5.5	5.0	7.0
CA	5.5	5.0	6.5
CA	5.5	5.0	6.0
CA	5.5	5.0	7.5
CA	6.0	5.0	5.0
CA	6.0	5.0	6.0
CA	6.0	5.0	5.5
CA	6.0	5.0	6.5
CA	6.0	5.0	7.5
CA	6.0	5.0	7.0
CA	6.5	5.0	4.0
CA	6.5	5.0	4.5
CA	6.5	5.0	5.5
CA	6.5	5.0	5.0
CA	6.5	5.0	6.0
CA	6.5	5.0	7.5
CA	6.5	5.0	7.0
CA	6.5	5.0	6.5
CA	7.0	5.0	2.5
CA	7.0	5.0	4.0
CA	7.0	5.0	3.5
CA	7.0	5.0	3.0
CA	7.0	5.0	5.5
CA	7.0	5.0	5.0
CA	7.0	5.0	4.5
CA	7.0	5.0	6.5
CA	7.0	5.0	6.0
CA	7.0	5.0	7.0
CA	7.0	5.0	7.5
CA	7.5	5.0	0.0
CA	7.5	5.0	2.5
CA	7.5	5.0	3.0
CA	7.5	5.0	3.5
CA	7.5	5.0	4.5
CA	7.5	5.0	4.0
CA	7.5	5.0	6.0
CA	7.5	5.0	5.5
CA	7.5	5.0	5.0
CA	7.5	5.0	6.5
CA	7.5	5.0	7.0
CA	7.5	5.0	8.0
CA	7.5	5.0	7.5
CA	8.0	5.0	0.0
CA	8.0	5.0	0.5
CA	8.0	5.0	1.5
CA	8.0	5.0	1.0
CA	8.0	5.0	2.0
CA	8.0	5.0	3.0
CA	8.0	5.0	2.5
CA	8.0	5.0	4.0
CA	8.0	5.0	3.5
CA	8.0	5.0	4.5
CA	8.0	5.0	5.0
CA	8.0	5.0	6.5
CA	8.0	5.0	6.0
CA	8.0	5.0	5.5
CA	8.0	5.0	7.0
CA	8.0	5.0	8.0
CA	8.0	5.0	7.5
CA	8.5	5.0	-0.5
CA	8.5	5.0	1.5
CA	8.5	5.0	1.0
CA	8.5	5.0	2.0
CA	8.5	5.0	3.0
CA	8.5	5.0	2.5
CA	8.5	5.0	3.5
CA	8.5	5.0	4.5
CA	8.5	5.0	4.0
CA	8.5	5.0	6.5
CA	8.5	5.0	5.0
CA	8.5	5.0	5.5
CA	8.5	5.0	7.5
CA	8.5	5.0	7.0
CA	8.5	5.0	8.0
CA	8.5	5.0	6.0
CA	9.0	5.0	0.0
CA	9.0	5.0	-0.5
CA	9.0	5.0	1.0
CA	9.0	5.0	0.5
CA	9.0	5.0	2.0
CA	9.0	5.0	1.5
CA	9.0	5.0	2.5
CA	9.0	5.0	3.5
CA	9.0	5.0	3.0
CA	9.0	5.0	4.5
CA	9.0	5.0	4.0
CA	9.0	5.0	5.0
CA	9.0	5.0	5.5
CA	9.0	5.0	6.0
CA	9.0	5.0	7.0
CA	9.0	5.0	6.5
CA	9.0	5.0	7.5
CA	9.0	5.0	8.0
CA	9.5	5.0	0.5
CA	9.5	5.0	-0.5
CA	9.5	5.0	0.0
CA	9.5	5.0	1.5
CA	9.5	5.0	1.0
CA	9.5	5.0	2.0
CA	9.5	5.0	2.5
CA	9.5	5.0	3.0
CA	9.5	5.0	4.0
CA	9.5	5.0	3.5
CA	9.5	5.0	5.5
CA	9.5	5.0	6.0
CA	9.5	5.0	4.5
CA	9.5	5.0	5.0
CA	9.5	5.0	6.5
CA	9.5	5.0	7.0
CA	9.5	5.0	7.5
CA	9.5	5.0	8.0
CA	10.0	5.0	-0.5
CA	10.0	5.0	0.0
CA	10.0	5.0	1.0
CA	10.0	5.0	1.5
CA	10.0	5.0	0.5
CA	10.0	5.0	2.5
CA	10.0	5.0	2.0
CA	10.0	5.0	3.0
CA	10.0	5.0	4.0
CA	10.0	5.0	5.5
CA	10.0	5.0	3.5
CA	10.0	5.0	5.0
CA	10.0	5.0	6.0
CA	10.0	5.0	4.5
CA	10.0	5.0	6.5
CA	10.0	5.0	7.0
CA	10.0	5.0	7.5
CA	10.5	5.0	0.0
CA	10.5	5.0	-0.5
CA	10.5	5.0	0.5
CA	10.5	5.0	1.0
CA	10.5	5.0	1.5
CA	10.5	5.0	3.0
CA	10.5	5.0	4.0
CA	10.5	5.0	3.5
CA	10.5	5.0	4.5
CA	10.5	5.0	2.0
CA	10.5	5.0	5.5
CA	10.5	5.0	6.5
CA	10.5	5.0	6.0
CA	10.5	5.0	2.5
CA	10.5	5.0	5.0
CA	10.5	5.0	7.5
CA	10.5	5.0	7.0
CA	11.0	5.0	0.5
CA	11.0	5.0	1.5
CA	11.0	5.0	1.0
CA	11.0	5.0	2.5
CA	11.0	5.0	2.0
CA	11.0	5.0	3.0
CA	11.0	5.0	0.0
CA	11.0	5.0	3.5
CA	11.0	5.0	4.0
CA	11.0	5.0	4.5
CA	11.0	5.0	5.0
CA	11.0	5.0	5.5
CA	11.0	5.0	6.0
CA	11.5	5.0	2.0
CA	11.5	5.0	3.5
CA	11.5	5.0	3.0
CA	11.5	5.0	2.5
CA	11.5	5.0	4.0
CA	11.5	5.0	4.5
CA	11.5	5.0	5.0
CA	11.5	5.0	5.5
CA	12.0	5.0	4.0
CA	12.0	5.0	3.5
CA	12.0	5.0	4.5
CA	12.0	5.0	5.0
CA	12.0	5.0	5.5
CA	12.5	5.0	5.5
CA	12.5	5.0	5.0
CA	1.0	5.5	1.5
CA	1.5	5.5	2.0
CA	1.5	5.5	2.5
CA	1.5	5.5	4.0
CA	1.5	5.5	5.0
CA	2.0	5.5	2.5
CA	2.0	5.5	2.0
CA	2.0	5.5	3.0
CA	2.0	5.5	3.5
CA	2.0	5.5	4.0
CA	2.0	5.5	4.5
CA	2.0	5.5	5.0
CA	2.0	5.5	6.5
CA	2.0	5.5	5.5
CA	2.0	5.5	7.0
CA	2.5	5.5	3.0
CA	2.5	5.5	2.5
CA	2.5	5.5	2.0
CA	2.5	5.5	4.0
CA	2.5	5.5	4.5
CA	2.5	5.5	7.0
CA	2.5	5.5	3.5
CA	3.0	5.5	2.0
CA	3.0	5.5	2.5
CA	3.0	5.5	3.5
CA	3.0	5.5	3.0
CA	3.0	5.5	7.0
CA	3.5	5.5	1.5
CA	3.5	5.5	2.0
CA	3.5	5.5	2.5
CA	3.5	5.5	3.0
CA	3.5	5.5	7.5
CA	4.0	5.5	1.0
CA	4.0	5.5	0.5
CA	4.0	5.5	1.5
CA	4.0	5.5	2.0
CA	4.0	5.5	2.5
CA	4.0	5.5	7.0
CA	4.0	5.5	7.5
CA	4.5	5.5	0.5
CA	4.5	5.5	1.0
CA	4.5	5.5	1.5
CA	4.5	5.5	7.5
CA	4.5	5.5	7.0
CA	5.0	5.5	6.5
CA	5.0	5.5	7.5
CA	5.0	5.5	7.0
CA	5.5	5.5	6.0
CA	5.5	5.5	6.5
CA	5.5	5.5	5.5
CA	5.5	5.5	7.0
CA	5.5	5.5	7.5
CA	6.0	5.5	5.0
CA	6.0	5.5	6.0
CA	6.0	5.5	5.5
CA	6.0	5.5	6.5
CA	6.0	5.5	7.0
CA	6.0	5.5	7.5
CA	6.5	5.5	5.0
CA	6.5	5.5	4.5
CA	6.5	5.5	5.5
CA	6.5	5.5	6.5
CA	6.5	5.5	6.0
CA	6.5	5.5	7.0
CA	6.5	5.5	7.5
CA	7.0	5.5	4.5
CA	7.0	5.5	4.0
CA	7.0	5.5	5.0
CA	7.0	5.5	6.0
CA	7.0	5.5	6.5
CA	7.0	5.5	5.5
CA	7.0	5.5	7.0
CA	7.0	5.5	7.5
CA	7.5	5.5	3.0
CA	7.5	5.5	2.5
CA	7.5	5.5	4.0
CA	7.5	5.5	3.5
CA	7.5	5.5	4.5
CA	7.5	5.5	5.0
CA	7.5	5.5	6.0
CA	7.5	5.5	5.5
CA	7.5	5.5	7.5
CA	7.5	5.5	6.5
CA	7.5	5.5	7.0
CA	8.0	5.5	-0.5
CA	8.0	5.5	0.0
CA	8.0	5.5	0.5
CA	8.0	5.5	3.0
CA	8.0	5.5	2.5
CA	8.0	5.5	3.5
CA	8.0	5.5	4.0
CA	8.0	5.5	2.0
CA	8.0	5.5	5.5
CA	8.0	5.5	4.5
CA	8.0	5.5	5.0
CA	8.0	5.5	6.0
CA	8.0	5.5	6.5
CA	8.0	5.5	7.0
CA	8.0	5.5	7.5
CA	8.5	5.5	-0.5
CA	8.5	5.5	0.5
CA	8.5	5.5	0.0
CA	8.5	5.5	1.5
CA	8.5	5.5	2.0
CA	8.5	5.5	1.0
CA	8.5	5.5	2.5
CA	8.5	5.5	3.0
CA	8.5	5.5	3.5
CA	8.5	5.5	4.5
CA	8.5	5.5	5.0
CA	8.5	5.5	4.0
CA	8.5	5.5	5.5
CA	8.5	5.5	6.0
CA	8.5	5.5	6.5
CA	8.5	5.5	7.5
CA	8.5	5.5	7.0
CA	9.0	5.5	-0.5
CA	9.0	5.5	0.5
CA	9.0	5.5	0.0
CA	9.0	5.5	2.0
CA	9.0	5.5	1.0
CA	9.0	5.5	3.0
CA	9.0	5.5	1.5
CA	9.0	5.5	2.5
CA	9.0	5.5	3.5
CA	9.0	5.5	4.5
CA	9.0	5.5	5.0
CA	9.0	5.5	4.0
CA	9.0	5.5	5.5
CA	9.0	5.5	6.0
CA	9.0	5.5	6.5
CA	9.0	5.5	7.5
CA	9.0	5.5	7.0
CA	9.0	5.5	8.0
CA	9.5	5.5	-0.5
CA	9.5	5.5	0.0
CA	9.5	5.5	0.5
CA	9.5	5.5	1.0
CA	9.5	5.5	1.5
CA	9.5	5.5	2.0
CA	9.5	5.5	2.5
CA	9.5	5.5	3.0
CA	9.5	5.5	3.5
CA	9.5	5.5	5.0
CA	9.5	5.5	4.0
CA	9.5	5.5	4.5
CA	9.5	5.5	6.0
CA	9.5	5.5	6.5
CA	9.5	5.5	5.5
CA	9.5	5.5	8.0
CA	9.5	5.5	7.0
CA	9.5	5.5	7.5
CA	10.0	5.5	-0.5
CA	10.0	5.5	0.0
CA	10.0	5.5	0.5
CA	10.0	5.5	1.0
CA	10.0	5.5	2.0
CA	10.0	5.5	1.5
CA	10.0	5.5	2.5
CA	10.0	5.5	3.0
CA	10.0	5.5	3.5
CA	10.0	5.5	4.0
CA	10.0	5.5	5.0
CA	10.0	5.5	4.5
CA	10.0	5.5	5.5
CA	10.0	5.5	6.0
CA	10.0	5.5	7.0
CA	10.0	5.5	6.5
CA	10.0	5.5	7.5
CA	10.5	5.5	1.0
CA	10.5	5.5	2.0
CA	10.5	5.5	2.5
CA	10.5	5.5	3.0
CA	10.5	5.5	3.5
CA	10.5	5.5	4.0
CA	10.5	5.5	4.5
CA	10.5	5.5	5.0
CA	10.5	5.5	1.5
CA	10.5	5.5	5.5
CA	10.5	5.5	6.5
CA	10.5	5.5	6.0
CA	10.5	5.5	7.0
CA	11.0	5.5	3.0
CA	11.0	5.5	3.5
CA	11.0	5.5	4.0
CA	11.0	5.5	5.0
CA	11.0	5.5	4.5
CA	11.0	5.5	5.5
CA	11.5	5.5	4.5
CA	11.5	5.5	5.5
CA	11.5	5.5	5.0
CA	0.0	6.0	1.5
CA	0.0	6.0	7.0
CA	0.5	6.0	1.5
CA	0.5	6.0	2.0
CA	1.0	6.0	1.5
CA	1.0	6.0	3.0
CA	1.5	6.0	3.0
CA	1.5	6.0	5.5
CA	1.5	6.0	7.0
CA	2.0	6.0	3.0
CA	2.0	6.0	4.5
CA	2.0	6.0	4.0
CA	2.0	6.0	3.5
CA	2.0	6.0	5.0
CA	2.0	6.0	5.5
CA	2.0	6.0	6.5
CA	2.0	6.0	7.0
CA	2.0	6.0	6.0
CA	2.5	6.0	2.5
CA	2.5	6.0	3.5
CA	2.5	6.0	3.0
CA	2.5	6.0	4.0
CA	2.5	6.0	4.5
CA	2.5	6.0	7.0
CA	2.5	6.0	6.5
CA	3.0	6.0	2.5
CA	3.0	6.0	3.0
CA	3.0	6.0	3.5
CA	3.0	6.0	4.0
CA	3.0	6.0	7.0
CA	3.5	6.0	2.0
CA	3.5	6.0	2.5
CA	3.5	6.0	3.0
CA	3.5	6.0	4.0
CA	3.5	6.0	3.5
CA	3.5	6.0	7.0
CA	4.0	6.0	0.5
CA	4.0	6.0	1.0
CA	4.0	6.0	2.5
CA	4.0	6.0	2.0
CA	4.0	6.0	7.0
CA	4.0	6.0	1.5
CA	4.5	6.0	0.5
CA	4.5	6.0	1.5
CA	4.5	6.0	1.0
CA	4.5	6.0	6.5
CA	4.5	6.0	7.5
CA	4.5	6.0	7.0
CA	5.0	6.0	6.0
CA	5.0	6.0	5.5
CA	5.0	6.0	7.5
CA	5.0	6.0	6.5
CA	5.0	6.0	7.0
CA	5.5	6.0	5.5
CA	5.5	6.0	7.0
CA	5.5	6.0	6.5
CA	5.5	6.0	6.0
CA	5.5	6.0	7.5
CA	6.0	6.0	5.0
CA	6.0	6.0	5.5
CA	6.0	6.0	6.0
CA	6.0	6.0	7.0
CA	6.0	6.0	7.5
CA	6.0	6.0	6.5
CA	6.5	6.0	4.5
CA	6.5	6.0	5.0
CA	6.5	6.0	5.5
CA	6.5	6.0	6.5
CA	6.5	6.0	6.0
CA	6.5	6.0	7.0
CA	6.5	6.0	7.5
CA	7.0	6.0	4.5
CA	7.0	6.0	4.0
CA	7.0	6.0	5.0
CA	7.0	6.0	6.0
CA	7.0	6.0	5.5
CA	7.0	6.0	6.5
CA	7.0	6.0	7.5
CA	7.0	6.0	7.0
CA	7.5	6.0	-0.5
CA	7.5	6.0	2.5
CA	7.5	6.0	3.5
CA	7.5	6.0	3.0
CA	7.5	6.0	5.0
CA	7.5	6.0	5.5
CA	7.5	6.0	4.0
CA	7.5	6.0	4.5
CA	7.5	6.0	6.0
CA	7.5	6.0	7.5
CA	7.5	6.0	6.5
CA	7.5	6.0	7.0
CA	8.0	6.0	-0.5
CA	8.0	6.0	0.0
CA	8.0	6.0	0.5
CA	8.0	6.0	2.0
CA	8.0	6.0	3.0
CA	8.0	6.0	2.5
CA	8.0	6.0	4.0
CA	8.0	6.0	4.5
CA	8.0	6.0	3.5
CA	8.0	6.0	5.0
CA	8.0	6.0	5.5
CA	8.0	6.0	6.0
CA	8.0	6.0	7.0
CA	8.0	6.0	7.5
CA	8.0	6.0	6.5
CA	8.5	6.0	-0.5
CA	8.5	6.0	0.0
CA	8.5	6.0	0.5
CA	8.5	6.0	1.0
CA	8.5	6.0	1.5
CA	8.5	6.0	2.0
CA	8.5	6.0	2.5
CA	8.5	6.0	3.0
CA	8.5	6.0	4.0
CA	8.5	6.0	3.5
CA	8.5	6.0	4.5
CA	8.5	6.0	5.5
CA	8.5	6.0	5.0
CA	8.5	6.0	6.5
CA	8.5	6.0	6.0
CA	8.5	6.0	7.0
CA	8.5	6.0	7.5
CA	9.0	6.0	0.0
CA	9.0	6.0	-0.5
CA	9.0	6.0	0.5
CA	9.0	6.0	1.5
CA	9.0	6.0	2.5
CA	9.0	6.0	2.0
CA	9.0	6.0	3.0
CA	9.0	6.0	1.0
CA	9.0	6.0	3.5
CA	9.0	6.0	4.5
CA	9.0	6.0	4.0
CA	9.0	6.0	5.0
CA	9.0	6.0	6.0
CA	9.0	6.0	5.5
CA	9.0	6.0	7.0
CA	9.0	6.0	6.5
CA	9.0	6.0	7.5
CA	9.5	6.0	0.5
CA	9.5	6.0	1.0
CA	9.5	6.0	1.5
CA	9.5	6.0	2.0
CA	9.5	6.0	2.5
CA	9.5	6.0	3.0
CA	9.5	6.0	3.5
CA	9.5	6.0	4.0
CA	9.5	6.0	5.5
CA	9.5	6.0	4.5
CA	9.5	6.0	6.0
CA	9.5	6.0	5.0
CA	9.5	6.0	7.0
CA	9.5	6.0	6.5
CA	9.5	6.0	7.5
CA	10.0	6.0	2.0
CA	10.0	6.0	3.0
CA	10.0	6.0	2.5
CA	10.0	6.0	4.0
CA	10.0	6.0	3.5
CA	10.0	6.0	4.5
CA	10.0	6.0	5.0
CA	10.0	6.0	6.0
CA	10.0	6.0	5.5
CA	10.0	6.0	7.0
CA	10.0	6.0	6.5
CA	10.5	6.0	4.0
CA	10.5	6.0	5.0
CA	10.5	6.0	4.5
CA	10.5	6.0	5.5
CA	10.5	6.0	6.0
CA	10.5	6.0	7.0
CA	10.5	6.0	6.5
CA	11.0	6.0	5.5
CA	0.0	6.5	1.5
CA	0.0	6.5	6.0
CA	0.0	6.5	6.5
CA	0.5	6.5	1.5
CA	0.5	6.5	7.0
CA	0.5	6.5	6.5
CA	0.5	6.5	6.0
CA	1.0	6.5	6.0
CA	1.0	6.5	6.5
CA	1.5	6.5	6.0
CA	1.5	6.5	6.5
CA	1.5	6.5	5.5
CA	2.0	6.5	3.5
CA	2.0	6.5	5.0
CA	2.0	6.5	4.0
CA	2.0	6.5	5.5
CA	2.0	6.5	6.0
CA	2.0	6.5	6.5
CA	2.0	6.5	4.5
CA	2.5	6.5	3.5
CA	2.5	6.5	4.0
CA	2.5	6.5	4.5
CA	2.5	6.5	6.0
CA	2.5	6.5	5.5
CA	2.5	6.5	6.5
CA	2.5	6.5	5.0
CA	2.5	6.5	7.0
CA	3.0	6.5	3.5
CA	3.0	6.5	3.0
CA	3.0	6.5	2.5
CA	3.0	6.5	4.0
CA	3.0	6.5	4.5
CA	3.0	6.5	6.0
CA	3.0	6.5	5.0
CA	3.0	6.5	6.5
CA	3.0	6.5	7.0
CA	3.5	6.5	3.0
CA	3.5	6.5	2.5
CA	3.5	6.5	4.0
CA	3.5	6.5	3.5
CA	3.5	6.5	4.5
CA	3.5	6.5	7.0
CA	3.5	6.5	6.5
CA	4.0	6.5	2.0
CA	4.0	6.5	4.5
CA	4.0	6.5	7.0
CA	4.0	6.5	2.5
CA	4.0	6.5	6.5
CA	4.5	6.5	2.0
CA	4.5	6.5	5.5
CA	4.5	6.5	6.0
CA	4.5	6.5	5.0
CA	4.5	6.5	7.0
CA	4.5	6.5	6.5
CA	5.0	6.5	5.5
CA	5.0	6.5	6.0
CA	5.0	6.5	5.0
CA	5.0	6.5	6.5
CA	5.0	6.5	7.0
CA	5.5	6.5	5.0
CA	5.5	6.5	6.5
CA	5.5	6.5	5.5
CA	5.5	6.5	6.0
CA	5.5	6.5	7.0
CA	6.0	6.5	5.0
CA	6.0	6.5	5.5
CA	6.0	6.5	6.5
CA	6.0	6.5	6.0
CA	6.0	6.5	7.0
CA	6.0	6.5	7.5
CA	6.5	6.5	4.5
CA	6.5	6.5	4.0
CA	6.5	6.5	5.5
CA	6.5	6.5	5.0
CA	6.5	6.5	6.0
CA	6.5	6.5	6.5
CA	6.5	6.5	7.5
CA	6.5	6.5	7.0
CA	7.0	6.5	4.0
CA	7.0	6.5	4.5
CA	7.0	6.5	5.5
CA	7.0	6.5	3.5
CA	7.0	6.5	5.0
CA	7.0	6.5	6.0
CA	7.0	6.5	6.5
CA	7.0	6.5	7.0
CA	7.0	6.5	7.5
CA	7.5	6.5	-0.5
CA	7.5	6.5	2.5
CA	7.5	6.5	3.5
CA	7.5	6.5	4.0
CA	7.5	6.5	3.0
CA	7.5	6.5	4.5
CA	7.5	6.5	5.0
CA	7.5	6.5	5.5
CA	7.5	6.5	6.0
CA	7.5	6.5	6.5
CA	7.5	6.5	7.0
CA	7.5	6.5	7.5
CA	8.0	6.5	0.5
CA	8.0	6.5	0.0
CA	8.0	6.5	1.5
CA	8.0	6.5	1.0
CA	8.0	6.5	2.0
CA	8.0	6.5	3.0
CA	8.0	6.5	-0.5
CA	8.0	6.5	4.0
CA	8.0	6.5	2.5
CA	8.0	6.5	3.5
CA	8.0	6.5	4.5
CA	8.0	6.5	5.0
CA	8.0	6.5	5.5
CA	8.0	6.5	6.0
CA	8.0	6.5	6.5
CA	8.0	6.5	7.0
CA	8.0	6.5	7.5
CA	8.5	6.5	0.5
CA	8.5	6.5	1.5
CA	8.5	6.5	0.0
CA	8.5	6.5	2.0
CA	8.5	6.5	1.0
CA	8.5	6.5	3.0
CA	8.5	6.5	4.0
CA	8.5	6.5	3.5
CA	8.5	6.5	4.5
CA	8.5	6.5	2.5
CA	8.5	6.5	5.0
CA	8.5	6.5	6.0
CA	8.5	6.5	5.5
CA	8.5	6.5	6.5
CA	8.5	6.5	7.5
CA	8.5	6.5	7.0
CA	9.0	6.5	1.5
CA	9.0	6.5	2.0
CA	9.0	6.5	3.0
CA	9.0	6.5	4.0
CA	9.0	6.5	3.5
CA	9.0	6.5	2.5
CA	9.0	6.5	4.5
CA	9.0	6.5	5.5
CA	9.0	6.5	5.0
CA	9.0	6.5	6.5
CA	9.0	6.5	7.5
CA	9.0	6.5	6.0
CA	9.0	6.5	7.0
CA	9.5	6.5	3.0
CA	9.5	6.5	3.5
CA	9.5	6.5	4.0
CA	9.5	6.5	5.5
CA	9.5	6.5	4.5
CA	9.5	6.5	5.0
CA	9.5	6.5	6.0
CA	9.5	6.5	6.5
CA	9.5	6.5	7.0
CA	10.0	6.5	5.0
CA	10.0	6.5	5.5
CA	10.0	6.5	6.5
CA	10.0	6.5	6.0
CA	10.0	6.5	7.0
CA	10.5	6.5	6.5
CA	10.5	6.5	7.0
CA	0.0	7.0	2.0
CA	0.0	7.0	2.5
CA	0.0	7.0	6.5
CA	0.0	7.0	6.0
CA	0.5	7.0	6.0
CA	0.5	7.0	6.5
CA	1.0	7.0	6.5
CA	1.0	7.0	6.0
CA	1.5	7.0	5.5
CA	1.5	7.0	6.0
CA	2.0	7.0	4.0
CA	2.0	7.0	4.5
CA	2.0	7.0	5.0
CA	2.0	7.0	6.0
CA	2.0	7.0	5.5
CA	2.0	7.0	6.5
CA	1.5	7.0	6.5
CA	2.5	7.0	3.5
CA	2.5	7.0	4.5
CA	2.5	7.0	4.0
CA	2.5	7.0	5.0
CA	2.5	7.0	5.5
CA	2.5	7.0	6.0
CA	2.5	7.0	7.0
CA	2.5	7.0	6.5
CA	3.0	7.0	3.0
CA	3.0	7.0	3.5
CA	3.0	7.0	4.0
CA	3.0	7.0	4.5
CA	3.0	7.0	5.0
CA	3.0	7.0	6.5
CA	3.0	7.0	6.0
CA	3.0	7.0	7.0
CA	3.0	7.0	5.5
CA	3.5	7.0	3.5
CA	3.5	7.0	5.0
CA	3.5	7.0	3.0
CA	3.5	7.0	4.0
CA	3.5	7.0	5.5
CA	3.5	7.0	4.5
CA	3.5	7.0	7.0
CA	3.5	7.0	6.5
CA	3.5	7.0	6.0
CA	4.0	7.0	3.5
CA	4.0	7.0	3.0
CA	4.0	7.0	4.0
CA	4.0	7.0	4.5
CA	4.0	7.0	5.0
CA	4.0	7.0	5.5
CA	4.0	7.0	6.0
CA	4.0	7.0	7.0
CA	4.0	7.0	6.5
CA	4.5	7.0	2.5
CA	4.5	7.0	5.0
CA	4.5	7.0	4.5
CA	4.5	7.0	5.5
CA	4.5	7.0	6.5
CA	4.5	7.0	7.0
CA	4.5	7.0	6.0
CA	5.0	7.0	5.5
CA	5.0	7.0	5.0
CA	5.0	7.0	4.5
CA	5.0	7.0	6.0
CA	5.0	7.0	6.5
CA	5.0	7.0	7.0
CA	5.5	7.0	4.5
CA	5.5	7.0	5.0
CA	5.5	7.0	5.5
CA	5.5	7.0	6.0
CA	5.5	7.0	6.5
CA	5.5	7.0	7.0
CA	6.0	7.0	5.5
CA	6.0	7.0	6.0
CA	6.0	7.0	6.5
CA	6.0	7.0	5.0
CA	6.0	7.0	4.5
CA	6.0	7.0	7.0
CA	6.5	7.0	3.5
CA	6.5	7.0	5.5
CA	6.5	7.0	5.0
CA	6.5	7.0	6.0
CA	6.5	7.0	6.5
CA	6.5	7.0	4.5
CA	6.5	7.0	4.0
CA	6.5	7.0	7.0
CA	7.0	7.0	2.5
CA	7.0	7.0	3.5
CA	7.0	7.0	3.0
CA	7.0	7.0	4.0
CA	7.0	7.0	4.5
CA	7.0	7.0	5.0
CA	7.0	7.0	5.5
CA	7.0	7.0	6.0
CA	7.0	7.0	6.5
CA	7.0	7.0	7.0
CA	7.0	7.0	7.5
CA	7.5	7.0	-0.5
CA	7.5	7.0	0.0
CA	7.5	7.0	1.0
CA	7.5	7.0	0.5
CA	7.5	7.0	1.5
CA	7.5	7.0	3.5
CA	7.5	7.0	3.0
CA	7.5	7.0	2.0
CA	7.5	7.0	2.5
CA	7.5	7.0	4.0
CA	7.5	7.0	4.5
CA	7.5	7.0	5.0
CA	7.5	7.0	6.0
CA	7.5	7.0	5.5
CA	7.5	7.0	6.5
CA	7.5	7.0	7.5
CA	7.5	7.0	7.0
CA	8.0	7.0	1.0
CA	8.0	7.0	2.0
CA	8.0	7.0	2.5
CA	8.0	7.0	1.5
CA	8.0	7.0	3.5
CA	8.0	7.0	3.0
CA	8.0	7.0	5.0
CA	8.0	7.0	4.0
CA	8.0	7.0	5.5
CA	8.0	7.0	6.0
CA	8.0	7.0	4.5
CA	8.0	7.0	7.0
CA	8.0	7.0	6.5
CA	8.0	7.0	7.5
CA	8.5	7.0	2.5
CA	8.5	7.0	3.0
CA	8.5	7.0	3.5
CA	8.5	7.0	4.5
CA	8.5	7.0	4.0
CA	8.5	7.0	6.0
CA	8.5	7.0	5.5
CA	8.5	7.0	7.5
CA	8.5	7.0	5.0
CA	8.5	7.0	6.5
CA	8.5	7.0	7.0
CA	9.0	7.0	4.0
CA	9.0	7.0	5.0
CA	9.0	7.0	4.5
CA	9.0	7.0	5.5
CA	9.0	7.0	6.5
CA	9.0	7.0	7.0
CA	9.0	7.0	6.0
CA	9.0	7.0	7.5
CA	9.5	7.0	6.0
CA	9.5	7.0	6.5
CA	9.5	7.0	7.0
CA	-0.5	7.5	2.5
CA	0.0	7.5	2.0
CA	0.0	7.5	2.5
CA	0.0	7.5	6.0
CA	0.0	7.5	5.5
CA	0.5	7.5	5.5
CA	0.5	7.5	6.0
CA	1.0	7.5	6.0
CA	1.0	7.5	6.5
CA	1.0	7.5	5.5
CA	1.5	7.5	4.0
CA	1.5	7.5	4.5
CA	1.5	7.5	5.0
CA	1.5	7.5	5.5
CA	1.5	7.5	6.0
CA	1.5	7.5	6.5
CA	2.0	7.5	4.5
CA	2.0	7.5	4.0
CA	2.0	7.5	5.5
CA	2.0	7.5	5.0
CA	2.0	7.5	6.5
CA	2.0	7.5	6.0
CA	2.5	7.5	3.5
CA	2.5	7.5	4.0
CA	2.5	7.5	4.5
CA	2.5	7.5	6.0
CA	2.5	7.5	5.5
CA	2.5	7.5	6.5
CA	2.5	7.5	5.0
CA	3.0	7.5	3.0
CA	3.0	7.5	3.5
CA	3.0	7.5	4.0
CA	3.0	7.5	5.5
CA	3.0	7.5	4.5
CA	3.0	7.5	5.0
CA	3.0	7.5	6.0
CA	3.0	7.5	6.5
CA	3.0	7.5	7.0
CA	3.5	7.5	4.0
CA	3.5	7.5	3.5
CA	3.5	7.5	4.5
CA	3.5	7.5	5.0
CA	3.5	7.5	5.5
CA	3.5	7.5	6.0
CA	3.5	7.5	6.5
CA	3.5	7.5	7.0
CA	4.0	7.5	4.0
CA	4.0	7.5	5.0
CA	4.0	7.5	4.5
CA	4.0	7.5	7.0
CA	4.0	7.5	5.5
CA	4.0	7.5	6.5
CA	4.0	7.5	6.0
CA	4.5	7.5	4.0
CA	4.5	7.5	3.5
CA	4.5	7.5	5.0
CA	4.5	7.5	5.5
CA	4.5	7.5	4.5
CA	4.5	7.5	6.0
CA	4.5	7.5	6.5
CA	4.5	7.5	7.0
CA	5.0	7.5	3.5
CA	5.0	7.5	4.0
CA	5.0	7.5	3.0
CA	5.0	7.5	4.5
CA	5.0	7.5	5.5
CA	5.0	7.5	5.0
CA	5.0	7.5	6.0
CA	5.0	7.5	7.0
CA	5.0	7.5	6.5
CA	5.5	7.5	4.5
CA	5.5	7.5	3.0
CA	5.5	7.5	3.5
CA	5.5	7.5	5.5
CA	5.5	7.5	6.0
CA	5.5	7.5	5.0
CA	5.5	7.5	4.0
CA	5.5	7.5	7.0
CA	5.5	7.5	6.5
CA	6.0	7.5	2.5
CA	6.0	7.5	3.0
CA	6.0	7.5	3.5
CA	6.0	7.5	4.5
CA	6.0	7.5	4.0
CA	6.0	7.5	5.0
CA	6.0	7.5	5.5
CA	6.0	7.5	6.0
CA	6.0	7.5	6.5
CA	6.0	7.5	7.0
CA	6.5	7.5	2.5
CA	6.5	7.5	3.5
CA	6.5	7.5	3.0
CA	6.5	7.5	5.0
CA	6.5	7.5	4.0
CA	6.5	7.5	5.5
CA	6.5	7.5	4.5
CA	6.5	7.5	6.0
CA	6.5	7.5	6.5
CA	6.5	7.5	7.0
CA	7.0	7.5	0.5
CA	7.0	7.5	1.0
CA	7.0	7.5	1.5
CA	7.0	7.5	2.0
CA	7.0	7.5	2.5
CA	7.0	7.5	3.0
CA	7.0	7.5	3.5
CA	7.0	7.5	4.0
CA	7.0	7.5	4.5
CA	7.0	7.5	5.0
CA	7.0	7.5	5.5
CA	7.0	7.5	6.0
CA	7.0	7.5	6.5
CA	7.0	7.5	7.0
CA	7.5	7.5	2.0
CA	7.5	7.5	2.5
CA	7.5	7.5	3.0
CA	7.5	7.5	4.5
CA	7.5	7.5	4.0
CA	7.5	7.5	3.5
CA	7.5	7.5	5.5
CA	7.5	7.5	5.0
CA	7.5	7.5	6.0
CA	7.5	7.5	6.5
CA	7.5	7.5	7.0
CA	8.0	7.5	3.5
CA	8.0	7.5	4.0
CA	8.0	7.5	5.0
CA	8.0	7.5	6.0
CA	8.0	7.5	6.5
CA	8.0	7.5	7.0
CA	8.0	7.5	5.5
CA	8.0	7.5	4.5
CA	8.5	7.5	5.0
CA	8.5	7.5	5.5
CA	8.5	7.5	6.0
CA	8.5	7.5	6.5
CA	8.5	7.5	7.5
CA	8.5	7.5	7.0
CA	9.0	7.5	7.0
CA	9.0	7.5	7.5
CA	0.0	8.0	2.0
CA	0.0	8.0	5.0
CA	0.0	8.0	6.0
CA	0.0	8.0	5.5
CA	0.5	8.0	6.0
CA	0.5	8.0	1.5
CA	0.5	8.0	5.5
CA	1.0	8.0	6.0
CA	1.0	8.0	5.5
CA	1.0	8.0	5.0
CA	1.5	8.0	6.0
CA	1.5	8.0	5.0
CA	1.5	8.0	5.5
CA	2.0	8.0	5.5
CA	2.0	8.0	5.0
CA	2.0	8.0	4.5
CA	2.0	8.0	6.0
CA	2.0	8.0	6.5
CA	2.5	8.0	4.5
CA	2.5	8.0	5.0
CA	2.5	8.0	6.0
CA	2.5	8.0	5.5
CA	2.5	8.0	6.5
CA	3.0	8.0	5.0
CA	3.0	8.0	5.5
CA	3.0	8.0	4.5
CA	3.0	8.0	6.0
CA	3.0	8.0	6.5
CA	3.5	8.0	4.5
CA	3.5	8.0	5.0
CA	3.5	8.0	5.5
CA	3.5	8.0	6.0
CA	3.5	8.0	6.5
CA	4.0	8.0	6.0
CA	4.0	8.0	4.5
CA	4.0	8.0	5.5
CA	4.0	8.0	5.0
CA	4.0	8.0	7.0
CA	4.0	8.0	6.5
CA	4.5	8.0	4.5
CA	4.5	8.0	4.0
CA	4.5	8.0	5.0
CA	4.5	8.0	5.5
CA	4.5	8.0	7.0
CA	4.5	8.0	6.5
CA	4.5	8.0	6.0
CA	5.0	8.0	4.5
CA	5.0	8.0	4.0
CA	5.0	8.0	5.0
CA	5.0	8.0	5.5
CA	5.0	8.0	6.5
CA	5.0	8.0	6.0
CA	5.0	8.0	7.0
CA	5.5	8.0	4.5
CA	5.5	8.0	4.0
CA	5.5	8.0	5.0
CA	5.5	8.0	5.5
CA	5.5	8.0	6.5
CA	5.5	8.0	6.0
CA	5.5	8.0	7.0
CA	6.0	8.0	4.5
CA	6.0	8.0	4.0
CA	6.0	8.0	5.0
CA	6.0	8.0	6.0
CA	6.0	8.0	5.5
CA	6.0	8.0	6.5
CA	6.0	8.0	7.0
CA	6.5	8.0	3.5
CA	6.5	8.0	3.0
CA	6.5	8.0	4.0
CA	6.5	8.0	5.0
CA	6.5	8.0	5.5
CA	6.5	8.0	4.5
CA	6.5	8.0	6.5
CA	6.5	8.0	6.0
CA	6.5	8.0	7.0
CA	7.0	8.0	3.0
CA	7.0	8.0	3.5
CA	7.0	8.0	4.0
CA	7.0	8.0	4.5
CA	7.0	8.0	5.0
CA	7.0	8.0	5.5
CA	7.0	8.0	6.0
CA	7.0	8.0	6.5
CA	7.0	8.0	7.0
CA	7.5	8.0	5.0
CA	7.5	8.0	4.5
CA	7.5	8.0	5.5
CA	7.5	8.0	6.0
CA	7.5	8.0	6.5
CA	7.5	8.0	7.0
CA	8.0	8.0	6.0
CA	8.0	8.0	6.5
CA	8.0	8.0	7.0
CA	-0.5	8.5	2.0
CA	0.0	8.5	2.0
CA	0.0	8.5	6.0
CA	0.0	8.5	5.5
CA	0.5	8.5	5.5
CA	0.5	8.5	2.0
CA	1.0	8.5	5.5
CA	1.0	8.5	6.0
CA	1.5	8.5	5.0
CA	1.5	8.5	5.5
CA	1.5	8.5	6.0
CA	2.0	8.5	6.5
CA	2.0	8.5	5.5
CA	2.0	8.5	5.0
CA	2.0	8.5	6.0
CA	2.5	8.5	5.0
CA	2.5	8.5	5.5
CA	2.5	8.5	6.5
CA	2.5	8.5	6.0
CA	3.0	8.5	5.0
CA	3.0	8.5	5.5
CA	3.0	8.5	6.0
CA	3.0	8.5	6.5
CA	3.5	8.5	5.5
CA	3.5	8.5	0.0
CA	3.5	8.5	6.0
CA	3.5	8.5	6.5
CA	4.0	8.5	5.5
CA	4.0	8.5	6.5
CA	4.0	8.5	6.0
CA	4.5	8.5	6.5
CA	4.5	8.5	6.0
CA	4.5	8.5	5.0
CA	4.5	8.5	5.5
CA	5.0	8.5	4.5
CA	5.0	8.5	5.5
CA	5.0	8.5	5.0
CA	5.0	8.5	6.0
CA	5.0	8.5	6.5
CA	5.5	8.5	4.5
CA	5.5	8.5	6.0
CA	5.5	8.5	5.0
CA	5.5	8.5	5.5
CA	5.5	8.5	6.5
CA	5.5	8.5	7.0
CA	6.0	8.5	5.0
CA	6.0	8.5	4.5
CA	6.0	8.5	5.5
CA	6.0	8.5	6.0
CA	6.0	8.5	7.0
CA	6.0	8.5	6.5
CA	6.5	8.5	4.0
CA	6.5	8.5	5.5
CA	6.5	8.5	5.0
CA	6.5	8.5	4.5
CA	6.5	8.5	6.5
CA	6.5	8.5	6.0
CA	6.5	8.5	7.0
CA	7.0	8.5	5.5
CA	7.0	8.5	6.0
CA	7.0	8.5	7.0
CA	7.0	8.5	6.5
CA	7.5	8.5	7.0
CA	-0.5	9.0	1.5
CA	-0.5	9.0	2.0
CA	0.0	9.0	1.5
CA	0.0	9.0	2.0
CA	0.0	9.0	6.0
CA	0.0	9.0	5.5
CA	0.5	9.0	2.0
CA	0.5	9.0	5.5
CA	0.5	9.0	6.0
CA	1.0	9.0	6.0
CA	1.0	9.0	5.5
CA	1.5	9.0	5.0
CA	1.5	9.0	5.5
CA	1.5	9.0	6.0
CA	2.0	9.0	5.0
CA	2.0	9.0	5.5
CA	2.0	9.0	6.0
CA	2.0	9.0	6.5
CA	2.5	9.0	1.5
CA	2.5	9.0	5.0
CA	2.5	9.0	5.5
CA	2.5	9.0	6.5
CA	2.5	9.0	6.0
CA	3.0	9.0	0.5
CA	3.0	9.0	5.5
CA	3.0	9.0	6.0
CA	3.0	9.0	6.5
CA	3.5	9.0	5.5
CA	3.5	9.0	6.0
CA	3.5	9.0	6.5
CA	4.0	9.0	0.5
CA	4.0	9.0	5.5
CA	4.0	9.0	6.0
CA	4.0	9.0	6.5
CA	4.5	9.0	5.5
CA	4.5	9.0	6.0
CA	4.5	9.0	6.5
CA	5.0	9.0	5.5
CA	5.0	9.0	5.0
CA	5.0	9.0	6.0
CA	5.0	9.0	6.5
CA	5.5	9.0	4.5
CA	5.5	9.0	5.0
CA	5.5	9.0	5.5
CA	5.5	9.0	6.5
CA	5.5	9.0	6.0
CA	6.0	9.0	6.0
CA	6.0	9.0	5.5
CA	6.0	9.0	5.0
CA	6.0	9.0	6.5
CA	6.5	9.0	6.5
CA	6.5	9.0	7.0
CA	-0.5	9.5	2.0
CA	-0.5	9.5	1.5
CA	-0.5	9.5	2.5
CA	-0.5	9.5	1.0
CA	0.0	9.5	1.5
CA	0.0	9.5	2.0
CA	0.0	9.5	2.5
CA	0.0	9.5	5.0
CA	0.5	9.5	2.0
CA	0.5	9.5	5.5
CA	0.5	9.5	5.0
CA	0.5	9.5	6.0
CA	1.0	9.5	2.0
CA	1.0	9.5	2.5
CA	1.0	9.5	5.0
CA	1.0	9.5	6.0
CA	1.0	9.5	5.5
CA	1.5	9.5	2.0
CA	1.5	9.5	5.0
CA	1.5	9.5	6.0
CA	1.5	9.5	5.5
CA	2.0	9.5	5.0
CA	2.0	9.5	6.0
CA	2.0	9.5	5.5
CA	2.5	9.5	1.5
CA	2.5	9.5	5.0
CA	2.5	9.5	5.5
CA	2.5	9.5	6.0
CA	2.5	9.5	6.5
CA	3.0	9.5	-0.5
CA	3.0	9.5	0.0
CA	3.0	9.5	1.0
CA	3.0	9.5	0.5
CA	3.0	9.5	1.5
CA	3.0	9.5	6.0
CA	3.0	9.5	5.5
CA	3.0	9.5	6.5
CA	3.5	9.5	0.5
CA	3.5	9.5	1.0
CA	3.5	9.5	6.0
CA	3.5	9.5	6.5
CA	4.0	9.5	6.5
CA	4.0	9.5	1.0
CA	4.0	9.5	6.0
CA	4.5	9.5	5.5
CA	4.5	9.5	6.5
CA	4.5	9.5	6.0
CA	5.0	9.5	6.0
CA	5.0	9.5	5.0
CA	5.0	9.5	5.5
CA	5.0	9.5	6.5
CA	5.5	9.5	6.0
CA	5.5	9.5	6.5
CA	-0.5	10.0	2.5
CA	-0.5	10.0	2.0
CA	-0.5	10.0	1.5
CA	0.0	10.0	1.5
CA	0.0	10.0	2.5
CA	0.0	10.0	1.0
CA	0.0	10.0	2.0
CA	0.0	10.0	3.0
CA	0.5	10.0	1.5
CA	0.5	10.0	2.5
CA	0.5	10.0	2.0
CA	0.5	10.0	3.0
CA	0.5	10.0	4.5
CA	0.5	10.0	5.0
CA	1.0	10.0	2.0
CA	1.0	10.0	2.5
CA	1.0	10.0	3.0
CA	1.0	10.0	4.5
CA	1.0	10.0	5.5
CA	1.0	10.0	6.0
CA	1.0	10.0	5.0
CA	1.5	10.0	4.0
CA	1.5	10.0	4.5
CA	1.5	10.0	2.0
CA	1.5	10.0	5.0
CA	1.5	10.0	5.5
CA	1.5	10.0	6.0
CA	2.0	10.0	-0.5
CA	2.0	10.0	1.5
CA	2.0	10.0	2.0
CA	2.0	10.0	4.5
CA	2.0	10.0	5.0
CA	2.0	10.0	6.0
CA	2.0	10.0	5.5
CA	2.5	10.0	0.0
CA	2.5	10.0	0.5
CA	2.5	10.0	-0.5
CA	2.5	10.0	1.0
CA	2.5	10.0	2.0
CA	2.5	10.0	1.5
CA	2.5	10.0	5.0
CA	2.5	10.0	5.5
CA	2.5	10.0	6.0
CA	3.0	10.0	1.5
CA	3.0	10.0	0.5
CA	3.0	10.0	1.0
CA	3.0	10.0	2.0
CA	3.0	10.0	5.5
CA	3.0	10.0	6.0
CA	3.5	10.0	2.0
CA	3.5	10.0	6.0
CA	3.5	10.0	6.5
CA	4.0	10.0	6.0
CA	4.0	10.0	6.5
CA	4.5	10.0	6.0
CA	4.5	10.0	6.5
CA	4.5	10.0	5.5
CA	0.0	10.5	0.5
CA	0.0	10.5	2.5
CA	0.5	10.5	0.5
CA	0.5	10.5	0.0
CA	0.5	10.5	1.5
CA	0.5	10.5	2.0
CA	0.5	10.5	3.0
CA	0.5	10.5	2.5
CA	0.5	10.5	1.0
CA	0.5	10.5	3.5
CA	0.5	10.5	4.5
CA	1.0	10.5	-0.5
CA	1.0	10.5	0.0
CA	1.0	10.5	1.0
CA	1.0	10.5	1.5
CA	1.0	10.5	2.0
CA	1.0	10.5	3.0
CA	1.0	10.5	3.5
CA	1.0	10.5	4.0
CA	1.0	10.5	2.5
CA	1.0	10.5	4.5
CA	1.0	10.5	5.0
CA	1.0	10.5	5.5
CA	1.5	10.5	0.0
CA	1.5	10.5	1.5
CA	1.5	10.5	1.0
CA	1.5	10.5	-0.5
CA	1.5	10.5	2.0
CA	1.5	10.5	2.5
CA	1.5	10.5	4.0
CA	1.5	10.5	4.5
CA	1.5	10.5	3.5
CA	1.5	10.5	3.0
CA	1.5	10.5	5.0
CA	1.5	10.5	5.5
CA	1.5	10.5	6.0
CA	2.0	10.5	0.0
CA	2.0	10.5	1.0
CA	2.0	10.5	0.5
CA	2.0	10.5	2.0
CA	2.0	10.5	1.5
CA	2.0	10.5	2.5
CA	2.0	10.5	3.5
CA	2.0	10.5	3.0
CA	2.0	10.5	4.0
CA	2.0	10.5	5.0
CA	2.0	10.5	4.5
CA	2.0	10.5	6.0
CA	2.0	10.5	5.5
CA	2.5	10.5	1.5
CA	2.5	10.5	2.5
CA	2.5	10.5	2.0
CA	2.5	10.5	3.5
CA	2.5	10.5	3.0
CA	2.5	10.5	4.5
CA	2.5	10.5	5.5
CA	2.5	10.5	5.0
CA	2.5	10.5	4.0
CA	2.5	10.5	6.0
CA	3.0	10.5	3.0
CA	3.0	10.5	5.5
CA	3.0	10.5	6.0
CA	3.5	10.5	5.5
CA	3.5	10.5	6.0
CA	0.5	11.0	0.0
CA	0.5	11.0	2.5
CA	0.5	11.0	3.0
CA	1.0	11.0	-0.5
CA	1.0	11.0	0.0
CA	1.0	11.0	1.0
CA	1.0	11.0	1.5
CA	1.0	11.0	2.0
CA	1.0	11.0	0.5
CA	1.0	11.0	2.5
CA	1.0	11.0	3.0
CA	1.0	11.0	3.5
CA	1.0	11.0	4.0
CA	1.0	11.0	4.5
CA	1.0	11.0	5.0
CA	1.0	11.0	5.5
CA	1.5	11.0	1.0
CA	1.5	11.0	2.5
CA	1.5	11.0	3.0
CA	1.5	11.0	2.0
CA	1.5	11.0	3.5
CA	1.5	11.0	1.5
CA	1.5	11.0	4.0
CA	1.5	11.0	4.5
CA	1.5	11.0	5.0
CA	1.5	11.0	6.0
CA	1.5	11.0	5.5
CA	2.0	11.0	2.5
CA	2.0	11.0	3.5
CA	2.0	11.0	3.0
CA	2.0	11.0	4.0
CA	2.0	11.0	4.5
CA	2.0	11.0	5.5
CA	2.0	11.0	5.0
CA	2.0	11.0	6.0
CA	2.5	11.0	4.0
CA	2.5	11.0	5.0
CA	2.5	11.0	4.5
CA	2.5	11.0	5.5
CA	2.5	11.0	6.0
CA	3.0	11.0	5.5
CA	3.0	11.0	6.0
CA	1.0	11.5	3.5
CA	1.0	11.5	2.5
CA	1.0	11.5	3.0
CA	1.0	11.5	4.0
CA	1.0	11.5	4.5
CA	1.5	11.5	4.0
CA	1.5	11.5	3.5
CA	1.5	11.5	5.5
CA	1.5	11.5	4.5
CA	1.5	11.5	5.0
CA	2.0	11.5	5.5
CA	2.0	11.5	6.0
CA	2.0	11.5	5.0
CA	0.5	12.0	4.0
CA	1.0	12.0	5.5
CA	1.0	12.0	4.5
